Circuit: * C:\Users\PC\OneDrive - Hanoi University of Science and Technology\Documents\LTspiceXVII\Draft8.asc

Direct Newton iteration for .op point succeeded.

Date: Tue Jan 30 10:43:11 2024
Total elapsed time: 0.107 seconds.

tnom = 27
temp = 27
method = trap
totiter = 12
traniter = 0
tranpoints = 0
accept = 0
rejected = 0
matrix size = 20
fillins = 2
solver = Normal
Matrix Compiler1:      84 opcodes
Matrix Compiler2: 1.73 KB object code size
