Circuit: * C:\Users\PC\OneDrive - Hanoi University of Science and Technology\Documents\LTspiceXVII\Draft6.asc

Direct Newton iteration for .op point succeeded.

Date: Wed Jan 03 15:04:33 2024
Total elapsed time: 0.134 seconds.

tnom = 27
temp = 27
method = trap
totiter = 7
traniter = 0
tranpoints = 0
accept = 0
rejected = 0
matrix size = 10
fillins = 0
solver = Normal
Matrix Compiler1:      30 opcodes
Matrix Compiler2: 774 bytes object code size
