Circuit: * C:\Users\PC\OneDrive - Hanoi University of Science and Technology\Documents\LTspiceXVII\Draft3.asc

.OP point found by inspection.

Date: Tue Oct 03 20:44:59 2023
Total elapsed time: 0.036 seconds.

tnom = 27
temp = 27
method = modified trap
totiter = 3509
traniter = 3509
tranpoints = 1448
accept = 1283
rejected = 165
matrix size = 10
fillins = 4
solver = Normal
Matrix Compiler1:      43 opcodes  0.1/[0.1]/0.1
Matrix Compiler2: off  [0.1]/0.1/0.1

