Circuit: * C:\Users\PC\OneDrive - Hanoi University of Science and Technology\Documents\LTspiceXVII\Draft2.asc

.OP point found by inspection.

Date: Tue Oct 03 19:04:26 2023
Total elapsed time: 0.181 seconds.

tnom = 27
temp = 27
method = modified trap
totiter = 66533
traniter = 66533
tranpoints = 23864
accept = 16628
rejected = 7236
matrix size = 10
fillins = 4
solver = Normal
Matrix Compiler1: 774 bytes object code size  0.1/0.1/[0.1]
Matrix Compiler2: off  [0.1]/0.1/0.1

